Version 4
SHEET 1 892 768
WIRE 336 80 -144 80
WIRE 400 80 336 80
WIRE -208 208 -240 208
WIRE -144 208 -144 80
WIRE -80 208 -144 208
WIRE 336 208 336 80
WIRE 336 208 240 208
WIRE -240 224 -240 208
WIRE -496 304 -624 304
WIRE -224 304 -496 304
WIRE -80 304 -160 304
WIRE -496 352 -496 304
WIRE -224 400 -304 400
WIRE -80 400 -160 400
WIRE 320 400 240 400
WIRE 320 432 320 400
WIRE -496 448 -496 432
WIRE -304 448 -304 400
WIRE -304 448 -496 448
WIRE -496 464 -496 448
WIRE -80 496 -192 496
WIRE 320 528 320 496
WIRE -192 544 -192 496
WIRE 480 592 480 528
WIRE 608 592 608 528
WIRE 480 704 480 672
WIRE 608 704 608 672
FLAG -192 544 0
FLAG 480 704 0
FLAG 608 704 0
FLAG 608 528 In
IOPIN 608 528 In
FLAG -624 304 In
IOPIN -624 304 In
FLAG 480 528 5v
IOPIN 480 528 In
FLAG 400 80 5v
IOPIN 400 80 In
FLAG -496 464 0
FLAG 320 528 0
FLAG 320 400 Out
IOPIN 320 400 Out
FLAG -240 224 0
SYMBOL OpAmps/AD8310 80 352 R0
SYMATTR InstName U1
SYMBOL voltage 480 576 R0
SYMATTR InstName V1
SYMATTR Value 5
SYMBOL voltage 608 576 R0
SYMATTR InstName V2
SYMATTR Value SINE(0 {AMPL} 10Meg)
SYMBOL Res -512 336 R0
SYMATTR InstName R1
SYMATTR Value 52.3
SYMBOL Cap -160 288 R90
WINDOW 0 0 32 VBottom 2
WINDOW 3 32 32 VTop 2
SYMATTR InstName C1
SYMATTR Value .01µ
SYMBOL Cap -160 384 R90
WINDOW 0 0 32 VBottom 2
WINDOW 3 32 32 VTop 2
SYMATTR InstName C9
SYMATTR Value .1µ
SYMBOL Cap 304 432 R0
SYMATTR InstName C3
SYMATTR Value .1µ
SYMBOL Cap -144 192 R90
WINDOW 0 0 32 VBottom 2
WINDOW 3 32 32 VTop 2
SYMATTR InstName C4
SYMATTR Value .01µ
TEXT -576 672 Left 2 !.tran 100u
TEXT -568 752 Left 2 !.step param AMPL LIST 1 2 3 4 5
TEXT -560 720 Left 2 !.PARAMS AMPL=1
